MODEL 1
REMARK VINA RESULT:     -11.8      0.000      0.000
REMARK  6 active torsions:
REMARK  status: ('A' for Active; 'I' for Inactive)
REMARK    1  A    between atoms: O2_2  and  C16_20 
REMARK    2  A    between atoms: O3_3  and  C17_21 
REMARK    3  A    between atoms: N1_4  and  C12_16 
REMARK    4  A    between atoms: C1_5  and  C2_6 
REMARK    5  A    between atoms: C2_6  and  C3_7 
REMARK    6  A    between atoms: C12_16  and  C15_19 
ROOT
ATOM      1  C2  UNK     1     -13.747 -44.609  26.497  1.00  0.00     0.017 C 
ENDROOT
BRANCH   1   2
ATOM      2  C1  UNK     1     -13.419 -44.671  27.985  1.00  0.00    -0.011 C 
ATOM      3  C4  UNK     1     -13.313 -46.122  28.466  1.00  0.00     0.032 C 
ATOM      4  C6  UNK     1     -12.885 -46.192  29.934  1.00  0.00     0.235 C 
ATOM      5  N1  UNK     1     -11.618 -45.483  30.151  1.00  0.00    -0.067 N 
ATOM      6  C7  UNK     1     -11.728 -44.069  29.767  1.00  0.00     0.235 C 
ATOM      7  HN  UNK     1     -10.912 -45.913  29.571  1.00  0.00     0.280 HD
ATOM      8  C5  UNK     1     -12.116 -43.927  28.294  1.00  0.00     0.032 C 
BRANCH   5   9
ATOM      9  C12 UNK     1     -11.197 -45.603  31.547  1.00  0.00     0.273 C 
BRANCH   9  10
ATOM     10  C15 UNK     1      -9.756 -45.208  31.734  1.00  0.00    -0.033 A 
ATOM     11  C18 UNK     1      -9.452 -43.984  32.312  1.00  0.00     0.009 A 
ATOM     12  C20 UNK     1      -8.117 -43.619  32.485  1.00  0.00     0.001 A 
ATOM     13  C22 UNK     1      -7.099 -44.482  32.078  1.00  0.00     0.000 A 
ATOM     14  C21 UNK     1      -7.417 -45.710  31.498  1.00  0.00     0.001 A 
ATOM     15  C19 UNK     1      -8.752 -46.075  31.325  1.00  0.00     0.009 A 
ENDBRANCH   9  10
ENDBRANCH   5   9
ENDBRANCH   1   2
BRANCH   1  16
ATOM     16  C3  UNK     1     -14.404 -43.292  26.128  1.00  0.00     0.065 A 
ATOM     17  C8  UNK     1     -15.620 -42.963  27.024  1.00  0.00     0.052 A 
ATOM     18  C10 UNK     1     -16.733 -42.720  26.055  1.00  0.00    -0.041 A 
ATOM     19  C11 UNK     1     -16.360 -42.941  24.735  1.00  0.00     0.019 A 
ATOM     20  C13 UNK     1     -18.032 -42.334  26.346  1.00  0.00     0.047 A 
ATOM     21  C9  UNK     1     -14.959 -43.331  24.715  1.00  0.00     0.164 A 
ATOM     22  C14 UNK     1     -17.230 -42.793  23.671  1.00  0.00     0.055 A 
ATOM     23  O1  UNK     1     -14.352 -43.630  23.703  1.00  0.00    -0.292 OA
ATOM     24  C17 UNK     1     -18.537 -42.402  23.963  1.00  0.00     0.102 A 
ATOM     25  C16 UNK     1     -18.936 -42.173  25.290  1.00  0.00     0.102 A 
BRANCH  24  26
ATOM     26  O3  UNK     1     -19.429 -42.244  22.943  1.00  0.00    -0.353 OA
ATOM     27  C24 UNK     1     -19.334 -41.043  22.181  1.00  0.00     0.210 C 
ENDBRANCH  24  26
BRANCH  25  28
ATOM     28  O2  UNK     1     -20.216 -41.794  25.566  1.00  0.00    -0.353 OA
ATOM     29  C23 UNK     1     -20.477 -41.305  26.879  1.00  0.00     0.210 C 
ENDBRANCH  25  28
ENDBRANCH   1  16
TORSDOF 6
ENDMDL
MODEL 2
REMARK VINA RESULT:     -11.6      1.150      2.368
REMARK  6 active torsions:
REMARK  status: ('A' for Active; 'I' for Inactive)
REMARK    1  A    between atoms: O2_2  and  C16_20 
REMARK    2  A    between atoms: O3_3  and  C17_21 
REMARK    3  A    between atoms: N1_4  and  C12_16 
REMARK    4  A    between atoms: C1_5  and  C2_6 
REMARK    5  A    between atoms: C2_6  and  C3_7 
REMARK    6  A    between atoms: C12_16  and  C15_19 
ROOT
ATOM      1  C2  UNK     1     -13.418 -43.223  26.756  1.00  0.00     0.017 C 
ENDROOT
BRANCH   1   2
ATOM      2  C1  UNK     1     -12.550 -44.220  27.516  1.00  0.00    -0.011 C 
ATOM      3  C4  UNK     1     -11.350 -43.523  28.166  1.00  0.00     0.032 C 
ATOM      4  C6  UNK     1     -10.531 -44.500  29.013  1.00  0.00     0.235 C 
ATOM      5  N1  UNK     1     -11.365 -45.147  30.033  1.00  0.00    -0.067 N 
ATOM      6  C7  UNK     1     -12.477 -45.886  29.418  1.00  0.00     0.235 C 
ATOM      7  HN  UNK     1     -11.754 -44.427  30.625  1.00  0.00     0.280 HD
ATOM      8  C5  UNK     1     -13.363 -44.956  28.586  1.00  0.00     0.032 C 
BRANCH   5   9
ATOM      9  C12 UNK     1     -10.558 -46.038  30.866  1.00  0.00     0.273 C 
BRANCH   9  10
ATOM     10  C15 UNK     1      -9.380 -45.322  31.475  1.00  0.00    -0.033 A 
ATOM     11  C18 UNK     1      -9.581 -44.126  32.149  1.00  0.00     0.009 A 
ATOM     12  C20 UNK     1      -8.491 -43.464  32.713  1.00  0.00     0.001 A 
ATOM     13  C22 UNK     1      -7.210 -44.004  32.596  1.00  0.00     0.000 A 
ATOM     14  C21 UNK     1      -7.020 -45.207  31.916  1.00  0.00     0.001 A 
ATOM     15  C19 UNK     1      -8.110 -45.869  31.352  1.00  0.00     0.009 A 
ENDBRANCH   9  10
ENDBRANCH   5   9
ENDBRANCH   1   2
BRANCH   1  16
ATOM     16  C3  UNK     1     -14.712 -43.859  26.286  1.00  0.00     0.065 A 
ATOM     17  C8  UNK     1     -14.935 -43.700  24.764  1.00  0.00     0.052 A 
ATOM     18  C10 UNK     1     -16.290 -43.077  24.656  1.00  0.00    -0.041 A 
ATOM     19  C11 UNK     1     -16.849 -42.778  25.892  1.00  0.00     0.019 A 
ATOM     20  C13 UNK     1     -16.986 -42.775  23.496  1.00  0.00     0.047 A 
ATOM     21  C9  UNK     1     -15.918 -43.195  26.928  1.00  0.00     0.164 A 
ATOM     22  C14 UNK     1     -18.089 -42.183  26.034  1.00  0.00     0.055 A 
ATOM     23  O1  UNK     1     -16.108 -43.030  28.119  1.00  0.00    -0.292 OA
ATOM     24  C17 UNK     1     -18.792 -41.881  24.868  1.00  0.00     0.102 A 
ATOM     25  C16 UNK     1     -18.245 -42.175  23.608  1.00  0.00     0.102 A 
BRANCH  24  26
ATOM     26  O3  UNK     1     -20.018 -41.293  24.963  1.00  0.00    -0.353 OA
ATOM     27  C24 UNK     1     -20.596 -41.209  26.263  1.00  0.00     0.210 C 
ENDBRANCH  24  26
BRANCH  25  28
ATOM     28  O2  UNK     1     -18.938 -41.874  22.473  1.00  0.00    -0.353 OA
ATOM     29  C23 UNK     1     -18.642 -40.629  21.845  1.00  0.00     0.210 C 
ENDBRANCH  25  28
ENDBRANCH   1  16
TORSDOF 6
ENDMDL
MODEL 3
REMARK VINA RESULT:     -11.3      4.009      8.900
REMARK  6 active torsions:
REMARK  status: ('A' for Active; 'I' for Inactive)
REMARK    1  A    between atoms: O2_2  and  C16_20 
REMARK    2  A    between atoms: O3_3  and  C17_21 
REMARK    3  A    between atoms: N1_4  and  C12_16 
REMARK    4  A    between atoms: C1_5  and  C2_6 
REMARK    5  A    between atoms: C2_6  and  C3_7 
REMARK    6  A    between atoms: C12_16  and  C15_19 
ROOT
ATOM      1  C2  UNK     1     -11.664 -46.151  28.708  1.00  0.00     0.017 C 
ENDROOT
BRANCH   1   2
ATOM      2  C1  UNK     1     -12.675 -45.194  28.084  1.00  0.00    -0.011 C 
ATOM      3  C4  UNK     1     -12.013 -43.864  27.705  1.00  0.00     0.032 C 
ATOM      4  C6  UNK     1     -12.999 -42.938  26.988  1.00  0.00     0.235 C 
ATOM      5  N1  UNK     1     -13.568 -43.587  25.801  1.00  0.00    -0.067 N 
ATOM      6  C7  UNK     1     -14.273 -44.825  26.159  1.00  0.00     0.235 C 
ATOM      7  HN  UNK     1     -12.810 -43.825  25.177  1.00  0.00     0.280 HD
ATOM      8  C5  UNK     1     -13.332 -45.816  26.847  1.00  0.00     0.032 C 
BRANCH   5   9
ATOM      9  C12 UNK     1     -14.467 -42.671  25.098  1.00  0.00     0.273 C 
BRANCH   9  10
ATOM     10  C15 UNK     1     -15.820 -42.597  25.756  1.00  0.00    -0.033 A 
ATOM     11  C18 UNK     1     -15.904 -42.543  27.140  1.00  0.00     0.009 A 
ATOM     12  C20 UNK     1     -17.157 -42.475  27.749  1.00  0.00     0.001 A 
ATOM     13  C22 UNK     1     -18.313 -42.462  26.968  1.00  0.00     0.000 A 
ATOM     14  C21 UNK     1     -18.215 -42.517  25.578  1.00  0.00     0.001 A 
ATOM     15  C19 UNK     1     -16.963 -42.585  24.968  1.00  0.00     0.009 A 
ENDBRANCH   9  10
ENDBRANCH   5   9
ENDBRANCH   1   2
BRANCH   1  16
ATOM     16  C3  UNK     1     -11.740 -46.129  30.222  1.00  0.00     0.065 A 
ATOM     17  C8  UNK     1     -13.076 -45.549  30.742  1.00  0.00     0.052 A 
ATOM     18  C10 UNK     1     -12.663 -44.458  31.676  1.00  0.00    -0.041 A 
ATOM     19  C11 UNK     1     -11.288 -44.266  31.711  1.00  0.00     0.019 A 
ATOM     20  C13 UNK     1     -13.488 -43.657  32.450  1.00  0.00     0.047 A 
ATOM     21  C9  UNK     1     -10.669 -45.230  30.815  1.00  0.00     0.164 A 
ATOM     22  C14 UNK     1     -10.681 -43.301  32.493  1.00  0.00     0.055 A 
ATOM     23  O1  UNK     1      -9.472 -45.287  30.599  1.00  0.00    -0.292 OA
ATOM     24  C17 UNK     1     -11.509 -42.496  33.274  1.00  0.00     0.102 A 
ATOM     25  C16 UNK     1     -12.903 -42.672  33.254  1.00  0.00     0.102 A 
BRANCH  24  26
ATOM     26  O3  UNK     1     -10.952 -41.531  34.060  1.00  0.00    -0.353 OA
ATOM     27  C24 UNK     1      -9.797 -41.896  34.811  1.00  0.00     0.210 C 
ENDBRANCH  24  26
BRANCH  25  28
ATOM     28  O2  UNK     1     -13.705 -41.879  34.020  1.00  0.00    -0.353 OA
ATOM     29  C23 UNK     1     -15.010 -41.601  33.517  1.00  0.00     0.210 C 
ENDBRANCH  25  28
ENDBRANCH   1  16
TORSDOF 6
ENDMDL
MODEL 4
REMARK VINA RESULT:     -11.2      1.220      1.782
REMARK  6 active torsions:
REMARK  status: ('A' for Active; 'I' for Inactive)
REMARK    1  A    between atoms: O2_2  and  C16_20 
REMARK    2  A    between atoms: O3_3  and  C17_21 
REMARK    3  A    between atoms: N1_4  and  C12_16 
REMARK    4  A    between atoms: C1_5  and  C2_6 
REMARK    5  A    between atoms: C2_6  and  C3_7 
REMARK    6  A    between atoms: C12_16  and  C15_19 
ROOT
ATOM      1  C2  UNK     1     -14.192 -44.791  26.827  1.00  0.00     0.017 C 
ENDROOT
BRANCH   1   2
ATOM      2  C1  UNK     1     -12.724 -44.764  27.241  1.00  0.00    -0.011 C 
ATOM      3  C4  UNK     1     -12.304 -43.360  27.690  1.00  0.00     0.032 C 
ATOM      4  C6  UNK     1     -10.861 -43.349  28.201  1.00  0.00     0.235 C 
ATOM      5  N1  UNK     1     -10.677 -44.315  29.291  1.00  0.00    -0.067 N 
ATOM      6  C7  UNK     1     -11.002 -45.679  28.852  1.00  0.00     0.235 C 
ATOM      7  HN  UNK     1     -11.306 -44.067  30.042  1.00  0.00     0.280 HD
ATOM      8  C5  UNK     1     -12.450 -45.770  28.364  1.00  0.00     0.032 C 
BRANCH   5   9
ATOM      9  C12 UNK     1      -9.308 -44.255  29.803  1.00  0.00     0.273 C 
BRANCH   9  10
ATOM     10  C15 UNK     1      -9.259 -43.723  31.212  1.00  0.00    -0.033 A 
ATOM     11  C18 UNK     1     -10.440 -43.399  31.862  1.00  0.00     0.009 A 
ATOM     12  C20 UNK     1     -10.394 -42.907  33.166  1.00  0.00     0.001 A 
ATOM     13  C22 UNK     1      -9.166 -42.743  33.807  1.00  0.00     0.000 A 
ATOM     14  C21 UNK     1      -7.984 -43.071  33.143  1.00  0.00     0.001 A 
ATOM     15  C19 UNK     1      -8.030 -43.564  31.839  1.00  0.00     0.009 A 
ENDBRANCH   9  10
ENDBRANCH   5   9
ENDBRANCH   1   2
BRANCH   1  16
ATOM     16  C3  UNK     1     -14.677 -43.415  26.413  1.00  0.00     0.065 A 
ATOM     17  C8  UNK     1     -15.988 -43.006  27.124  1.00  0.00     0.052 A 
ATOM     18  C10 UNK     1     -16.913 -42.646  26.007  1.00  0.00    -0.041 A 
ATOM     19  C11 UNK     1     -16.359 -42.864  24.752  1.00  0.00     0.019 A 
ATOM     20  C13 UNK     1     -18.207 -42.159  26.111  1.00  0.00     0.047 A 
ATOM     21  C9  UNK     1     -15.008 -43.371  24.931  1.00  0.00     0.164 A 
ATOM     22  C14 UNK     1     -17.038 -42.616  23.574  1.00  0.00     0.055 A 
ATOM     23  O1  UNK     1     -14.276 -43.695  24.013  1.00  0.00    -0.292 OA
ATOM     24  C17 UNK     1     -18.340 -42.124  23.677  1.00  0.00     0.102 A 
ATOM     25  C16 UNK     1     -18.920 -41.896  24.936  1.00  0.00     0.102 A 
BRANCH  24  26
ATOM     26  O3  UNK     1     -19.047 -41.866  22.540  1.00  0.00    -0.353 OA
ATOM     27  C24 UNK     1     -18.815 -40.611  21.905  1.00  0.00     0.210 C 
ENDBRANCH  24  26
BRANCH  25  28
ATOM     28  O2  UNK     1     -20.193 -41.417  25.027  1.00  0.00    -0.353 OA
ATOM     29  C23 UNK     1     -21.214 -42.353  25.364  1.00  0.00     0.210 C 
ENDBRANCH  25  28
ENDBRANCH   1  16
TORSDOF 6
ENDMDL
MODEL 5
REMARK VINA RESULT:     -10.6      4.285     10.002
REMARK  6 active torsions:
REMARK  status: ('A' for Active; 'I' for Inactive)
REMARK    1  A    between atoms: O2_2  and  C16_20 
REMARK    2  A    between atoms: O3_3  and  C17_21 
REMARK    3  A    between atoms: N1_4  and  C12_16 
REMARK    4  A    between atoms: C1_5  and  C2_6 
REMARK    5  A    between atoms: C2_6  and  C3_7 
REMARK    6  A    between atoms: C12_16  and  C15_19 
ROOT
ATOM      1  C2  UNK     1     -11.552 -46.316  29.055  1.00  0.00     0.017 C 
ENDROOT
BRANCH   1   2
ATOM      2  C1  UNK     1     -12.335 -45.056  28.700  1.00  0.00    -0.011 C 
ATOM      3  C4  UNK     1     -11.475 -44.085  27.883  1.00  0.00     0.032 C 
ATOM      4  C6  UNK     1     -12.286 -42.865  27.438  1.00  0.00     0.235 C 
ATOM      5  N1  UNK     1     -13.474 -43.268  26.675  1.00  0.00    -0.067 N 
ATOM      6  C7  UNK     1     -14.348 -44.137  27.474  1.00  0.00     0.235 C 
ATOM      7  HN  UNK     1     -13.168 -43.786  25.864  1.00  0.00     0.280 HD
ATOM      8  C5  UNK     1     -13.609 -45.401  27.920  1.00  0.00     0.032 C 
BRANCH   5   9
ATOM      9  C12 UNK     1     -14.209 -42.090  26.213  1.00  0.00     0.273 C 
BRANCH   9  10
ATOM     10  C15 UNK     1     -15.420 -42.468  25.401  1.00  0.00    -0.033 A 
ATOM     11  C18 UNK     1     -15.267 -42.827  24.070  1.00  0.00     0.009 A 
ATOM     12  C20 UNK     1     -16.389 -43.177  23.319  1.00  0.00     0.001 A 
ATOM     13  C22 UNK     1     -17.654 -43.163  23.907  1.00  0.00     0.000 A 
ATOM     14  C21 UNK     1     -17.796 -42.799  25.246  1.00  0.00     0.001 A 
ATOM     15  C19 UNK     1     -16.674 -42.450  25.997  1.00  0.00     0.009 A 
ENDBRANCH   9  10
ENDBRANCH   5   9
ENDBRANCH   1   2
BRANCH   1  16
ATOM     16  C3  UNK     1     -11.148 -46.324  30.517  1.00  0.00     0.065 A 
ATOM     17  C8  UNK     1     -11.837 -45.203  31.330  1.00  0.00     0.052 A 
ATOM     18  C10 UNK     1     -10.705 -44.478  31.985  1.00  0.00    -0.041 A 
ATOM     19  C11 UNK     1      -9.459 -44.962  31.606  1.00  0.00     0.019 A 
ATOM     20  C13 UNK     1     -10.787 -43.415  32.871  1.00  0.00     0.047 A 
ATOM     21  C9  UNK     1      -9.661 -46.066  30.679  1.00  0.00     0.164 A 
ATOM     22  C14 UNK     1      -8.271 -44.434  32.073  1.00  0.00     0.055 A 
ATOM     23  O1  UNK     1      -8.754 -46.674  30.139  1.00  0.00    -0.292 OA
ATOM     24  C17 UNK     1      -8.352 -43.366  32.967  1.00  0.00     0.102 A 
ATOM     25  C16 UNK     1      -9.601 -42.861  33.364  1.00  0.00     0.102 A 
BRANCH  24  26
ATOM     26  O3  UNK     1      -7.204 -42.815  33.453  1.00  0.00    -0.353 OA
ATOM     27  C24 UNK     1      -5.999 -43.553  33.259  1.00  0.00     0.210 C 
ENDBRANCH  24  26
BRANCH  25  28
ATOM     28  O2  UNK     1      -9.671 -41.815  34.236  1.00  0.00    -0.353 OA
ATOM     29  C23 UNK     1     -10.960 -41.485  34.749  1.00  0.00     0.210 C 
ENDBRANCH  25  28
ENDBRANCH   1  16
TORSDOF 6
ENDMDL
MODEL 6
REMARK VINA RESULT:      -9.9      1.602      3.017
REMARK  6 active torsions:
REMARK  status: ('A' for Active; 'I' for Inactive)
REMARK    1  A    between atoms: O2_2  and  C16_20 
REMARK    2  A    between atoms: O3_3  and  C17_21 
REMARK    3  A    between atoms: N1_4  and  C12_16 
REMARK    4  A    between atoms: C1_5  and  C2_6 
REMARK    5  A    between atoms: C2_6  and  C3_7 
REMARK    6  A    between atoms: C12_16  and  C15_19 
ROOT
ATOM      1  C2  UNK     1     -15.102 -42.513  26.179  1.00  0.00     0.017 C 
ENDROOT
BRANCH   1   2
ATOM      2  C1  UNK     1     -14.219 -43.574  26.827  1.00  0.00    -0.011 C 
ATOM      3  C4  UNK     1     -12.793 -43.052  27.035  1.00  0.00     0.032 C 
ATOM      4  C6  UNK     1     -11.928 -44.075  27.776  1.00  0.00     0.235 C 
ATOM      5  N1  UNK     1     -12.533 -44.449  29.061  1.00  0.00    -0.067 N 
ATOM      6  C7  UNK     1     -13.871 -45.024  28.870  1.00  0.00     0.235 C 
ATOM      7  HN  UNK     1     -12.625 -43.613  29.621  1.00  0.00     0.280 HD
ATOM      8  C5  UNK     1     -14.802 -44.033  28.168  1.00  0.00     0.032 C 
BRANCH   5   9
ATOM      9  C12 UNK     1     -11.670 -45.387  29.779  1.00  0.00     0.273 C 
BRANCH   9  10
ATOM     10  C15 UNK     1     -10.886 -44.706  30.870  1.00  0.00    -0.033 A 
ATOM     11  C18 UNK     1     -11.499 -43.733  31.647  1.00  0.00     0.009 A 
ATOM     12  C20 UNK     1     -10.773 -43.102  32.657  1.00  0.00     0.001 A 
ATOM     13  C22 UNK     1      -9.441 -43.451  32.880  1.00  0.00     0.000 A 
ATOM     14  C21 UNK     1      -8.834 -44.430  32.092  1.00  0.00     0.001 A 
ATOM     15  C19 UNK     1      -9.561 -45.060  31.082  1.00  0.00     0.009 A 
ENDBRANCH   9  10
ENDBRANCH   5   9
ENDBRANCH   1   2
BRANCH   1  16
ATOM     16  C3  UNK     1     -16.400 -43.108  25.669  1.00  0.00     0.065 A 
ATOM     17  C8  UNK     1     -16.661 -42.778  24.181  1.00  0.00     0.052 A 
ATOM     18  C10 UNK     1     -18.024 -42.165  24.176  1.00  0.00    -0.041 A 
ATOM     19  C11 UNK     1     -18.557 -42.017  25.450  1.00  0.00     0.019 A 
ATOM     20  C13 UNK     1     -18.751 -41.740  23.074  1.00  0.00     0.047 A 
ATOM     21  C9  UNK     1     -17.597 -42.538  26.409  1.00  0.00     0.164 A 
ATOM     22  C14 UNK     1     -19.799 -41.459  25.688  1.00  0.00     0.055 A 
ATOM     23  O1  UNK     1     -17.760 -42.513  27.616  1.00  0.00    -0.292 OA
ATOM     24  C17 UNK     1     -20.533 -41.034  24.580  1.00  0.00     0.102 A 
ATOM     25  C16 UNK     1     -20.014 -41.174  23.282  1.00  0.00     0.102 A 
BRANCH  24  26
ATOM     26  O3  UNK     1     -21.763 -40.477  24.769  1.00  0.00    -0.353 OA
ATOM     27  C24 UNK     1     -22.804 -41.344  25.215  1.00  0.00     0.210 C 
ENDBRANCH  24  26
BRANCH  25  28
ATOM     28  O2  UNK     1     -20.737 -40.754  22.206  1.00  0.00    -0.353 OA
ATOM     29  C23 UNK     1     -20.476 -39.438  21.724  1.00  0.00     0.210 C 
ENDBRANCH  25  28
ENDBRANCH   1  16
TORSDOF 6
ENDMDL
MODEL 7
REMARK VINA RESULT:      -9.8      2.228      4.079
REMARK  6 active torsions:
REMARK  status: ('A' for Active; 'I' for Inactive)
REMARK    1  A    between atoms: O2_2  and  C16_20 
REMARK    2  A    between atoms: O3_3  and  C17_21 
REMARK    3  A    between atoms: N1_4  and  C12_16 
REMARK    4  A    between atoms: C1_5  and  C2_6 
REMARK    5  A    between atoms: C2_6  and  C3_7 
REMARK    6  A    between atoms: C12_16  and  C15_19 
ROOT
ATOM      1  C2  UNK     1     -15.230 -41.985  24.799  1.00  0.00     0.017 C 
ENDROOT
BRANCH   1   2
ATOM      2  C1  UNK     1     -14.231 -43.074  25.177  1.00  0.00    -0.011 C 
ATOM      3  C4  UNK     1     -13.765 -42.915  26.628  1.00  0.00     0.032 C 
ATOM      4  C6  UNK     1     -12.841 -44.063  27.044  1.00  0.00     0.235 C 
ATOM      5  N1  UNK     1     -13.493 -45.364  26.852  1.00  0.00    -0.067 N 
ATOM      6  C7  UNK     1     -13.876 -45.564  25.448  1.00  0.00     0.235 C 
ATOM      7  HN  UNK     1     -14.332 -45.383  27.414  1.00  0.00     0.280 HD
ATOM      8  C5  UNK     1     -14.835 -44.468  24.978  1.00  0.00     0.032 C 
BRANCH   5   9
ATOM      9  C12 UNK     1     -12.617 -46.446  27.303  1.00  0.00     0.273 C 
BRANCH   9  10
ATOM     10  C15 UNK     1     -12.190 -46.263  28.736  1.00  0.00    -0.033 A 
ATOM     11  C18 UNK     1     -13.152 -46.081  29.718  1.00  0.00     0.009 A 
ATOM     12  C20 UNK     1     -12.755 -45.910  31.044  1.00  0.00     0.001 A 
ATOM     13  C22 UNK     1     -11.400 -45.923  31.375  1.00  0.00     0.000 A 
ATOM     14  C21 UNK     1     -10.441 -46.106  30.378  1.00  0.00     0.001 A 
ATOM     15  C19 UNK     1     -10.838 -46.277  29.052  1.00  0.00     0.009 A 
ENDBRANCH   9  10
ENDBRANCH   5   9
ENDBRANCH   1   2
BRANCH   1  16
ATOM     16  C3  UNK     1     -16.487 -42.573  24.189  1.00  0.00     0.065 A 
ATOM     17  C8  UNK     1     -16.886 -41.880  22.865  1.00  0.00     0.052 A 
ATOM     18  C10 UNK     1     -18.305 -41.464  23.084  1.00  0.00    -0.041 A 
ATOM     19  C11 UNK     1     -18.760 -41.740  24.366  1.00  0.00     0.019 A 
ATOM     20  C13 UNK     1     -19.150 -40.846  22.174  1.00  0.00     0.047 A 
ATOM     21  C9  UNK     1     -17.684 -42.382  25.104  1.00  0.00     0.164 A 
ATOM     22  C14 UNK     1     -20.036 -41.428  24.797  1.00  0.00     0.055 A 
ATOM     23  O1  UNK     1     -17.764 -42.711  26.274  1.00  0.00    -0.292 OA
ATOM     24  C17 UNK     1     -20.888 -40.809  23.882  1.00  0.00     0.102 A 
ATOM     25  C16 UNK     1     -20.448 -40.520  22.580  1.00  0.00     0.102 A 
BRANCH  24  26
ATOM     26  O3  UNK     1     -22.155 -40.483  24.266  1.00  0.00    -0.353 OA
ATOM     27  C24 UNK     1     -22.428 -40.487  25.665  1.00  0.00     0.210 C 
ENDBRANCH  24  26
BRANCH  25  28
ATOM     28  O2  UNK     1     -21.287 -39.913  21.692  1.00  0.00    -0.353 OA
ATOM     29  C23 UNK     1     -20.688 -39.081  20.702  1.00  0.00     0.210 C 
ENDBRANCH  25  28
ENDBRANCH   1  16
TORSDOF 6
ENDMDL
MODEL 8
REMARK VINA RESULT:      -9.8      3.530     10.309
REMARK  6 active torsions:
REMARK  status: ('A' for Active; 'I' for Inactive)
REMARK    1  A    between atoms: O2_2  and  C16_20 
REMARK    2  A    between atoms: O3_3  and  C17_21 
REMARK    3  A    between atoms: N1_4  and  C12_16 
REMARK    4  A    between atoms: C1_5  and  C2_6 
REMARK    5  A    between atoms: C2_6  and  C3_7 
REMARK    6  A    between atoms: C12_16  and  C15_19 
ROOT
ATOM      1  C2  UNK     1     -13.985 -42.376  26.221  1.00  0.00     0.017 C 
ENDROOT
BRANCH   1   2
ATOM      2  C1  UNK     1     -15.104 -42.800  25.274  1.00  0.00    -0.011 C 
ATOM      3  C4  UNK     1     -16.475 -42.665  25.946  1.00  0.00     0.032 C 
ATOM      4  C6  UNK     1     -17.607 -42.993  24.970  1.00  0.00     0.235 C 
ATOM      5  N1  UNK     1     -17.535 -42.147  23.772  1.00  0.00    -0.067 N 
ATOM      6  C7  UNK     1     -16.255 -42.324  23.073  1.00  0.00     0.235 C 
ATOM      7  HN  UNK     1     -17.606 -41.182  24.062  1.00  0.00     0.280 HD
ATOM      8  C5  UNK     1     -15.077 -41.973  23.984  1.00  0.00     0.032 C 
BRANCH   5   9
ATOM      9  C12 UNK     1     -18.653 -42.436  22.873  1.00  0.00     0.273 C 
BRANCH   9  10
ATOM     10  C15 UNK     1     -19.445 -41.197  22.546  1.00  0.00    -0.033 A 
ATOM     11  C18 UNK     1     -19.110 -40.447  21.429  1.00  0.00     0.009 A 
ATOM     12  C20 UNK     1     -19.843 -39.300  21.126  1.00  0.00     0.001 A 
ATOM     13  C22 UNK     1     -20.905 -38.914  21.946  1.00  0.00     0.000 A 
ATOM     14  C21 UNK     1     -21.232 -39.676  23.067  1.00  0.00     0.001 A 
ATOM     15  C19 UNK     1     -20.499 -40.823  23.370  1.00  0.00     0.009 A 
ENDBRANCH   9  10
ENDBRANCH   5   9
ENDBRANCH   1   2
BRANCH   1  16
ATOM     16  C3  UNK     1     -13.120 -43.556  26.621  1.00  0.00     0.065 A 
ATOM     17  C8  UNK     1     -13.926 -44.671  27.327  1.00  0.00     0.052 A 
ATOM     18  C10 UNK     1     -13.194 -44.892  28.612  1.00  0.00    -0.041 A 
ATOM     19  C11 UNK     1     -12.134 -44.013  28.791  1.00  0.00     0.019 A 
ATOM     20  C13 UNK     1     -13.480 -45.832  29.590  1.00  0.00     0.047 A 
ATOM     21  C9  UNK     1     -12.060 -43.145  27.627  1.00  0.00     0.164 A 
ATOM     22  C14 UNK     1     -11.327 -44.024  29.913  1.00  0.00     0.055 A 
ATOM     23  O1  UNK     1     -11.254 -42.240  27.504  1.00  0.00    -0.292 OA
ATOM     24  C17 UNK     1     -11.611 -44.971  30.897  1.00  0.00     0.102 A 
ATOM     25  C16 UNK     1     -12.679 -45.869  30.737  1.00  0.00     0.102 A 
BRANCH  24  26
ATOM     26  O3  UNK     1     -10.841 -45.015  32.021  1.00  0.00    -0.353 OA
ATOM     27  C24 UNK     1     -10.037 -43.871  32.300  1.00  0.00     0.210 C 
ENDBRANCH  24  26
BRANCH  25  28
ATOM     28  O2  UNK     1     -12.951 -46.790  31.705  1.00  0.00    -0.353 OA
ATOM     29  C23 UNK     1     -14.183 -46.646  32.407  1.00  0.00     0.210 C 
ENDBRANCH  25  28
ENDBRANCH   1  16
TORSDOF 6
ENDMDL
MODEL 9
REMARK VINA RESULT:      -9.8      3.433     10.414
REMARK  6 active torsions:
REMARK  status: ('A' for Active; 'I' for Inactive)
REMARK    1  A    between atoms: O2_2  and  C16_20 
REMARK    2  A    between atoms: O3_3  and  C17_21 
REMARK    3  A    between atoms: N1_4  and  C12_16 
REMARK    4  A    between atoms: C1_5  and  C2_6 
REMARK    5  A    between atoms: C2_6  and  C3_7 
REMARK    6  A    between atoms: C12_16  and  C15_19 
ROOT
ATOM      1  C2  UNK     1     -13.815 -44.703  27.406  1.00  0.00     0.017 C 
ENDROOT
BRANCH   1   2
ATOM      2  C1  UNK     1     -14.318 -43.851  26.245  1.00  0.00    -0.011 C 
ATOM      3  C4  UNK     1     -14.481 -44.693  24.974  1.00  0.00     0.032 C 
ATOM      4  C6  UNK     1     -15.080 -43.867  23.833  1.00  0.00     0.235 C 
ATOM      5  N1  UNK     1     -16.364 -43.274  24.226  1.00  0.00    -0.067 N 
ATOM      6  C7  UNK     1     -16.209 -42.401  25.398  1.00  0.00     0.235 C 
ATOM      7  HN  UNK     1     -16.996 -44.022  24.471  1.00  0.00     0.280 HD
ATOM      8  C5  UNK     1     -15.649 -43.177  26.592  1.00  0.00     0.032 C 
BRANCH   5   9
ATOM      9  C12 UNK     1     -16.948 -42.531  23.109  1.00  0.00     0.273 C 
BRANCH   9  10
ATOM     10  C15 UNK     1     -18.288 -41.943  23.466  1.00  0.00    -0.033 A 
ATOM     11  C18 UNK     1     -18.928 -42.353  24.626  1.00  0.00     0.009 A 
ATOM     12  C20 UNK     1     -20.168 -41.808  24.956  1.00  0.00     0.001 A 
ATOM     13  C22 UNK     1     -20.757 -40.858  24.122  1.00  0.00     0.000 A 
ATOM     14  C21 UNK     1     -20.105 -40.453  22.957  1.00  0.00     0.001 A 
ATOM     15  C19 UNK     1     -18.864 -40.998  22.627  1.00  0.00     0.009 A 
ENDBRANCH   9  10
ENDBRANCH   5   9
ENDBRANCH   1   2
BRANCH   1  16
ATOM     16  C3  UNK     1     -12.302 -44.806  27.403  1.00  0.00     0.065 A 
ATOM     17  C8  UNK     1     -11.787 -46.010  28.226  1.00  0.00     0.052 A 
ATOM     18  C10 UNK     1     -10.814 -45.406  29.187  1.00  0.00    -0.041 A 
ATOM     19  C11 UNK     1     -10.751 -44.021  29.098  1.00  0.00     0.019 A 
ATOM     20  C13 UNK     1     -10.029 -46.070  30.117  1.00  0.00     0.047 A 
ATOM     21  C9  UNK     1     -11.666 -43.590  28.053  1.00  0.00     0.164 A 
ATOM     22  C14 UNK     1      -9.932 -43.250  29.900  1.00  0.00     0.055 A 
ATOM     23  O1  UNK     1     -11.865 -42.424  27.762  1.00  0.00    -0.292 OA
ATOM     24  C17 UNK     1      -9.140 -43.917  30.835  1.00  0.00     0.102 A 
ATOM     25  C16 UNK     1      -9.187 -45.317  30.942  1.00  0.00     0.102 A 
BRANCH  24  26
ATOM     26  O3  UNK     1      -8.317 -43.194  31.647  1.00  0.00    -0.353 OA
ATOM     27  C24 UNK     1      -8.762 -42.969  32.983  1.00  0.00     0.210 C 
ENDBRANCH  24  26
BRANCH  25  28
ATOM     28  O2  UNK     1      -8.410 -45.960  31.861  1.00  0.00    -0.353 OA
ATOM     29  C23 UNK     1      -7.009 -46.002  31.606  1.00  0.00     0.210 C 
ENDBRANCH  25  28
ENDBRANCH   1  16
TORSDOF 6
ENDMDL
