REMARK  6 active torsions:
REMARK  status: ('A' for Active; 'I' for Inactive)
REMARK    1  A    between atoms: O2_2  and  C16_20 
REMARK    2  A    between atoms: O3_3  and  C17_21 
REMARK    3  A    between atoms: N1_4  and  C12_16 
REMARK    4  A    between atoms: C1_5  and  C2_6 
REMARK    5  A    between atoms: C2_6  and  C3_7 
REMARK    6  A    between atoms: C12_16  and  C15_19 
ROOT
ATOM      1  C2  UNK     1       0.179  -1.613  -0.153  1.00  0.00     0.017 C 
ENDROOT
BRANCH   1   2
ATOM      2  C1  UNK     1      -1.065  -0.986  -0.774  1.00  0.00    -0.011 C 
ATOM      3  C4  UNK     1      -1.920  -2.043  -1.482  1.00  0.00     0.032 C 
ATOM      4  C6  UNK     1      -3.219  -1.438  -2.020  1.00  0.00     0.235 C 
ATOM      5  N1  UNK     1      -3.985  -0.789  -0.949  1.00  0.00    -0.067 N 
ATOM      6  C7  UNK     1      -3.205   0.281  -0.312  1.00  0.00     0.235 C 
ATOM      7  HN  UNK     1      -4.199  -1.484  -0.248  1.00  0.00     0.280 HD
ATOM      8  C5  UNK     1      -1.906  -0.265   0.285  1.00  0.00     0.032 C 
BRANCH   5   9
ATOM      9  C12 UNK     1      -5.247  -0.262  -1.469  1.00  0.00     0.273 C 
BRANCH   9  10
ATOM     10  C15 UNK     1      -6.096   0.338  -0.379  1.00  0.00    -0.033 A 
ATOM     11  C18 UNK     1      -7.005  -0.462   0.298  1.00  0.00     0.009 A 
ATOM     12  C20 UNK     1      -7.791   0.094   1.307  1.00  0.00     0.001 A 
ATOM     13  C22 UNK     1      -7.660   1.445   1.629  1.00  0.00     0.000 A 
ATOM     14  C21 UNK     1      -6.743   2.240   0.941  1.00  0.00     0.001 A 
ATOM     15  C19 UNK     1      -5.957   1.684  -0.068  1.00  0.00     0.009 A 
ENDBRANCH   9  10
ENDBRANCH   5   9
ENDBRANCH   1   2
BRANCH   1  16
ATOM     16  C3  UNK     1       1.045  -0.570   0.527  1.00  0.00     0.065 A 
ATOM     17  C8  UNK     1       1.608   0.474  -0.465  1.00  0.00     0.052 A 
ATOM     18  C10 UNK     1       3.084   0.444  -0.229  1.00  0.00    -0.041 A 
ATOM     19  C11 UNK     1       3.466  -0.521   0.694  1.00  0.00     0.019 A 
ATOM     20  C13 UNK     1       4.048   1.238  -0.831  1.00  0.00     0.047 A 
ATOM     21  C9  UNK     1       2.270  -1.202   1.164  1.00  0.00     0.164 A 
ATOM     22  C14 UNK     1       4.782  -0.739   1.056  1.00  0.00     0.055 A 
ATOM     23  O1  UNK     1       2.282  -2.129   1.954  1.00  0.00    -0.292 OA
ATOM     24  C17 UNK     1       5.753   0.061   0.453  1.00  0.00     0.102 A 
ATOM     25  C16 UNK     1       5.389   1.043  -0.483  1.00  0.00     0.102 A 
BRANCH  24  26
ATOM     26  O3  UNK     1       7.064  -0.121   0.781  1.00  0.00    -0.353 OA
ATOM     27  C24 UNK     1       7.802  -1.058   0.000  1.00  0.00     0.210 C 
ENDBRANCH  24  26
BRANCH  25  28
ATOM     28  O2  UNK     1       6.345   1.819  -1.069  1.00  0.00    -0.353 OA
ATOM     29  C23 UNK     1       6.683   3.037  -0.410  1.00  0.00     0.210 C 
ENDBRANCH  25  28
ENDBRANCH   1  16
TORSDOF 6
