REMARK  Name = ligand_prepared.pdb
REMARK  8 active torsions:
REMARK  status: ('A' for Active; 'I' for Inactive)
REMARK    1  A    between atoms: O2_2  and  C16_20
REMARK    2  A    between atoms: O2_2  and  C23_27
REMARK    3  A    between atoms: O3_3  and  C17_21
REMARK    4  A    between atoms: O3_3  and  C24_28
REMARK    5  A    between atoms: N1_4  and  C12_16
REMARK    6  A    between atoms: C1_5  and  C2_6
REMARK    7  A    between atoms: C2_6  and  C3_7
REMARK    8  A    between atoms: C12_16  and  C15_19
REMARK                            x       y       z     vdW  Elec       q    Type
REMARK                         _______ _______ _______ _____ _____    ______ ____
ROOT
ATOM      1  N1  UNK     1      -3.985  -0.789  -0.949  0.00  0.00    +0.000 N 
ATOM      2  C1  UNK     1      -1.065  -0.986  -0.774  0.00  0.00    +0.000 C 
ATOM      3  C4  UNK     1      -1.920  -2.043  -1.482  0.00  0.00    +0.000 C 
ATOM      4  C5  UNK     1      -1.906  -0.265   0.285  0.00  0.00    +0.000 C 
ATOM      5  C6  UNK     1      -3.219  -1.438  -2.020  0.00  0.00    +0.000 C 
ATOM      6  C7  UNK     1      -3.205   0.281  -0.312  0.00  0.00    +0.000 C 
ATOM      7  H1  UNK     1      -0.769  -0.250  -1.533  0.00  0.00    +0.000 HD
ATOM      8  H5  UNK     1      -1.356  -2.487  -2.310  0.00  0.00    +0.000 HD
ATOM      9  H6  UNK     1      -2.160  -2.858  -0.787  0.00  0.00    +0.000 HD
ATOM     10  H7  UNK     1      -2.139  -0.947   1.113  0.00  0.00    +0.000 HD
ATOM     11  H8  UNK     1      -1.364   0.587   0.709  0.00  0.00    +0.000 HD
ATOM     12  H9  UNK     1      -2.988  -0.726  -2.824  0.00  0.00    +0.000 HD
ATOM     13  H10 UNK     1      -3.812  -2.248  -2.463  0.00  0.00    +0.000 HD
ATOM     14  H11 UNK     1      -2.977   1.086  -1.022  0.00  0.00    +0.000 HD
ATOM     15  H12 UNK     1      -3.730   0.716   0.542  0.00  0.00    +0.000 HD
ATOM     16  HN  UNK     1      -4.199  -1.484  -0.248  0.00  0.00    +0.000 HD
ENDROOT
BRANCH   2  17
ATOM     17  C2  UNK     1       0.179  -1.613  -0.153  0.00  0.00    +0.000 C 
ATOM     18  H2  UNK     1      -0.113  -2.381   0.576  0.00  0.00    +0.000 HD
ATOM     19  H3  UNK     1       0.757  -2.138  -0.925  0.00  0.00    +0.000 HD
BRANCH  17  21
ATOM     20  O1  UNK     1       2.282  -2.129   1.954  0.00  0.00    +0.000 OA
ATOM     21  C3  UNK     1       1.045  -0.570   0.527  0.00  0.00    +0.000 C 
ATOM     22  C8  UNK     1       1.608   0.474  -0.465  0.00  0.00    +0.000 C 
ATOM     23  C9  UNK     1       2.270  -1.202   1.164  0.00  0.00    +0.000 C 
ATOM     24  C10 UNK     1       3.084   0.444  -0.229  0.00  0.00    +0.000 A 
ATOM     25  C11 UNK     1       3.466  -0.521   0.694  0.00  0.00    +0.000 A 
ATOM     26  C13 UNK     1       4.048   1.238  -0.831  0.00  0.00    +0.000 A 
ATOM     27  C14 UNK     1       4.782  -0.739   1.056  0.00  0.00    +0.000 A 
ATOM     28  C16 UNK     1       5.389   1.043  -0.483  0.00  0.00    +0.000 A 
ATOM     29  C17 UNK     1       5.753   0.061   0.453  0.00  0.00    +0.000 A 
ATOM     30  H4  UNK     1       0.524  -0.063   1.347  0.00  0.00    +0.000 HD
ATOM     31  H13 UNK     1       1.408   0.219  -1.511  0.00  0.00    +0.000 HD
ATOM     32  H14 UNK     1       1.197   1.467  -0.253  0.00  0.00    +0.000 HD
ATOM     33  H17 UNK     1       3.767   1.994  -1.558  0.00  0.00    +0.000 HD
ATOM     34  H18 UNK     1       5.052  -1.500   1.780  0.00  0.00    +0.000 HD
BRANCH  28  35
ATOM     35  O2  UNK     1       6.345   1.819  -1.069  0.00  0.00    +0.000 OA
BRANCH  35  36
ATOM     36  C23 UNK     1       6.683   3.037  -0.410  0.00  0.00    +0.000 C 
ATOM     37  H24 UNK     1       7.461   3.538  -0.992  0.00  0.00    +0.000 HD
ATOM     38  H25 UNK     1       5.811   3.696  -0.353  0.00  0.00    +0.000 HD
ATOM     39  H26 UNK     1       7.070   2.838   0.594  0.00  0.00    +0.000 HD
ENDBRANCH  35  36
ENDBRANCH  28  35
BRANCH  29  40
ATOM     40  O3  UNK     1       7.064  -0.121   0.781  0.00  0.00    +0.000 OA
BRANCH  40  41
ATOM     41  C24 UNK     1       7.802  -1.058   0.000  0.00  0.00    +0.000 C 
ATOM     42  H27 UNK     1       8.828  -1.084   0.377  0.00  0.00    +0.000 HD
ATOM     43  H28 UNK     1       7.370  -2.059   0.092  0.00  0.00    +0.000 HD
ATOM     44  H29 UNK     1       7.823  -0.752  -1.050  0.00  0.00    +0.000 HD
ENDBRANCH  40  41
ENDBRANCH  29  40
ENDBRANCH  17  21
ENDBRANCH   2  17
BRANCH   1  45
ATOM     45  C12 UNK     1      -5.247  -0.262  -1.469  0.00  0.00    +0.000 C 
ATOM     46  H15 UNK     1      -5.074   0.487  -2.255  0.00  0.00    +0.000 HD
ATOM     47  H16 UNK     1      -5.819  -1.067  -1.948  0.00  0.00    +0.000 HD
BRANCH  45  48
ATOM     48  C15 UNK     1      -6.096   0.338  -0.379  0.00  0.00    +0.000 A 
ATOM     49  C18 UNK     1      -7.005  -0.462   0.298  0.00  0.00    +0.000 A 
ATOM     50  C19 UNK     1      -5.957   1.684  -0.068  0.00  0.00    +0.000 A 
ATOM     51  C20 UNK     1      -7.791   0.094   1.307  0.00  0.00    +0.000 A 
ATOM     52  C21 UNK     1      -6.743   2.240   0.941  0.00  0.00    +0.000 A 
ATOM     53  C22 UNK     1      -7.660   1.445   1.629  0.00  0.00    +0.000 A 
ATOM     54  H19 UNK     1      -7.114  -1.516   0.057  0.00  0.00    +0.000 HD
ATOM     55  H20 UNK     1      -5.259   2.320  -0.605  0.00  0.00    +0.000 HD
ATOM     56  H21 UNK     1      -8.505  -0.525   1.842  0.00  0.00    +0.000 HD
ATOM     57  H22 UNK     1      -6.644   3.292   1.190  0.00  0.00    +0.000 HD
ATOM     58  H23 UNK     1      -8.273   1.878   2.414  0.00  0.00    +0.000 HD
ENDBRANCH  45  48
ENDBRANCH   1  45
TORSDOF 8
